
**** 09/14/24 10:48:24 **** PSpice 23.1.0 (30 January 2024) *** ID# 0 ********

 ** Profile: "SCHEMATIC1-LAB1_project_analys"  [ E:\electric-circuit\LAB1_project\lab1_project-pspicefiles\schematic1\lab1_project_an


 ****     CIRCUIT DESCRIPTION


******************************************************************************




** Creating circuit file "LAB1_project_analys.cir" 
** WARNING: THIS AUTOMATICALLY GENERATED FILE MAY BE OVERWRITTEN BY SUBSEQUENT SIMULATIONS

*Libraries: 
* Profile Libraries :
* Local Libraries :
* From [PSPICE NETLIST] section of C:\cds_spb_home\cdssetup\OrCAD_PSpiceTIPSpice_Install\23.1.0\PSpice.ini file:
.lib "nom_pspti.lib" 
.lib "nom.lib" 

*Analysis directives: 
.OPTIONS ADVCONV
.OPTIONS FILEMODELSEARCH
.PROBE64 V(alias(*)) I(alias(*)) W(alias(*)) D(alias(*)) NOISE(alias(*)) 
.INC "..\SCHEMATIC1.net" 



**** INCLUDING SCHEMATIC1.net ****
* source LAB1_PROJECT
V_V1         N06101 N06130 12Vdc
R_R1         N06101 N06108  9k TC=0,0 
R_R2         N06108 N06123  3k TC=0,0 
R_R3         N06130 N06108  6k TC=0,0 
R_R4         N06130 N06123  3k TC=0,0 

**** RESUMING LAB1_project_analys.cir ****
.END

ERROR(ORPSIM-15142): Node N06101 is floating

ERROR(ORPSIM-15142): Node N06130 is floating

ERROR(ORPSIM-15142): Node N06108 is floating

ERROR(ORPSIM-15142): Node N06123 is floating
