
**** 09/17/24 15:48:51 **** PSpice 23.1.0 (30 January 2024) *** ID# 0 ********

 ** Profile: "SCHEMATIC1-LAB1_project_analys"  [ E:\electric-circuit\LAB1_project\lab1_project-pspicefiles\schematic1\lab1_project_an


 ****     CIRCUIT DESCRIPTION


******************************************************************************




** Creating circuit file "LAB1_project_analys.cir" 
** WARNING: THIS AUTOMATICALLY GENERATED FILE MAY BE OVERWRITTEN BY SUBSEQUENT SIMULATIONS

*Libraries: 
* Profile Libraries :
* Local Libraries :
* From [PSPICE NETLIST] section of C:\cds_spb_home\cdssetup\OrCAD_PSpiceTIPSpice_Install\23.1.0\PSpice.ini file:
.lib "nom_pspti.lib" 
.lib "nom.lib" 

*Analysis directives: 
.OPTIONS ADVCONV
.OPTIONS FILEMODELSEARCH
.PROBE64 V(alias(*)) I(alias(*)) W(alias(*)) D(alias(*)) NOISE(alias(*)) 
.INC "..\SCHEMATIC1.net" 



**** INCLUDING SCHEMATIC1.net ****
* source LAB1_PROJECT
R_R1         N10205 N10212  10V TC=0,0 
R_R2         0 N10212  20V TC=0,0 
V_V1         N10205 0 30Vdc
V_V2         N10212 N10233 8V
X_F1    N10205 N10205 0 N10233 SCHEMATIC1_F1 

.subckt SCHEMATIC1_F1 1 2 3 4  
F_F1         3 4 VF_F1 0.4
VF_F1         1 2 0V
.ends SCHEMATIC1_F1

**** RESUMING LAB1_project_analys.cir ****
.END

ERROR(ORPSIM-15143): Voltage source and/or inductor loop involving X_F1.VF_F1. You may break the loop by adding a series resistance
