
**** 09/13/24 09:58:52 **** PSpice 23.1.0 (30 January 2024) *** ID# 0 ********

 ** Profile: "SCHEMATIC1-LAB1_project_analys"  [ E:\electric-circuit\LAB1_project\LAB1_project-PSpiceFiles\SCHEMATIC1\LAB1_project_an


 ****     CIRCUIT DESCRIPTION


******************************************************************************




** Creating circuit file "LAB1_project_analys.cir" 
** WARNING: THIS AUTOMATICALLY GENERATED FILE MAY BE OVERWRITTEN BY SUBSEQUENT SIMULATIONS

*Libraries: 
* Profile Libraries :
* Local Libraries :
* From [PSPICE NETLIST] section of C:\cds_spb_home\cdssetup\OrCAD_PSpiceTIPSpice_Install\23.1.0\PSpice.ini file:
.lib "nom_pspti.lib" 
.lib "nom.lib" 

*Analysis directives: 
.OPTIONS ADVCONV
.OPTIONS FILEMODELSEARCH
.PROBE64 V(alias(*)) I(alias(*)) W(alias(*)) D(alias(*)) NOISE(alias(*)) 
.INC "..\SCHEMATIC1.net" 



**** INCLUDING SCHEMATIC1.net ****
* source LAB1_PROJECT
V_V1         N01855 0 0Vdc
V_V2         N01855 0 12Vdc
R_R1         N01855 N01867  2 TC=0,0 
R_R2         N01867 N01877  3 TC=0,0 
R_R3         N01877 N01886  4 TC=0,0 
R_R4         N01902 N01886  5 TC=0,0 
R_R5         N01909 N01902  3 TC=0,0 
R_R6         N01909 N01877  4 TC=0,0 
R_R7         N01909 N01867  6 TC=0,0 
R_R8         0 N01909  1 TC=0,0 

**** RESUMING LAB1_project_analys.cir ****
.END

ERROR(ORPSIM-15143): Voltage source and/or inductor loop involving V_V2. You may break the loop by adding a series resistance
